Circuit: * U:\Windows\Bureau\Capteur\Circuit Capteur complet avec bruit.asc

Direct Newton iteration for .op point succeeded.

Date: Fri Jan 31 09:28:10 2025
Total elapsed time: 0.276 seconds.

tnom = 27
temp = 27
method = modified trap
totiter = 7816
traniter = 7794
tranpoints = 3898
accept = 2438
rejected = 1460
matrix size = 16
fillins = 5
solver = Normal
Avg thread counts: 1.2/1.3/1.3/1.2
Matrix Compiler1: 728 bytes object code size  0.4/0.3/[0.2]
Matrix Compiler2: 1.30 KB object code size  0.2/0.4/[0.2]

